/*--------------------------------*- C++ -*----------------------------------*\
  =========                 |
  \\      /  F ield         | OpenFOAM: The Open Source CFD Toolbox
   \\    /   O peration     | Website:  https://openfoam.org
    \\  /    A nd           | Version:  8
     \\/     M anipulation  |
\*---------------------------------------------------------------------------*/
FoamFile
{
    version     2.0;
    format      ascii;
    class       dictionary;
    object      blockMeshDict;
}
// * * * * * * * * * * * * * * * * * * * * * * * * * * * * * * * * * * * * * //

convertToMeters 0.001;

vertices
(
 (0.0 0.0 0.0)//0
 (3.5355 3.5355 0.0)//1
 (-3.5355 3.5355 0.0)//2
 (-3.5355 -3.5355 0.0)//3
 (3.5355 -3.5355 0.0)//4
 (15.0614 15.0614 0.0)//5
 (-15.0614 15.0614 0.0)//6
 (-15.0614 -15.0614 0.0)//7
 (15.0614 -15.0614 0.0)//8
 (3.5355 3.5355 90.0)//9
 (-3.5355 3.5355 90.0)//10
 (-3.5355 -3.5355 90.0)//11
 (3.5355 -3.5355 90.0)//12
 (15.0614 15.0614 90.0)//13
 (-15.0614 15.0614 90.0)//14
 (-15.0614 -15.0614 90.0)//15
 (15.0614 -15.0614 90.0)//16
 (0.0 0.0 90.0)//17
);

blocks
(
    hex (1 2 3 4 9 10 11 12) (10 10 450) simpleGrading (1 1 1)
    hex (1 5 6 2 9 13 14 10) (10 10 450) simpleGrading (1 1 1)
    hex (2 6 7 3 10 14 15 11) (10 10 450) simpleGrading (1 1 1)
    hex (3 7 8 4 11 15 16 12) (10 10 450) simpleGrading (1 1 1)
    hex (8 5 1 4 16 13 9 12) (10 10 450) simpleGrading (1 1 1)
);

edges
(
	arc 5 6 (0.0 21.30 0.0)
	arc 6 7 (-21.30 0.0 0.0)
	arc 7 8 (0.0 -21.30 0.0)
	arc 8 5 (21.30 0.0 0.0)
	arc 13 14 (0.0 21.30 90.0)
	arc 14 15 (-21.30 0.0 90.0)
	arc 15 16 (0.0 -21.30 90.0)
	arc 16 13 (21.30 0.0 90.0)
	arc 1 2 (0.0 5.0 0.0)
	arc 2 3 (-5.0 0.0 0.0)
	arc 3 4 (0.0 -5.0 0.0)
	arc 4 1 (5.0 0.0 0.0)
	arc 9 10 (0.0 5.0 90.0)
	arc 10 11 (-5.0 0.0 90.0)
	arc 11 12 (0.0 -5.0 90.0)
	arc 12 9 (5.0 0.0 90.0)
	
);

boundary
(
    walls
    {
        type wall;
        faces
        (
            (13 14 6 5)
            (14 15 7 6)
            (15 16 8 7)
            (16 13 5 8)
        );
    }
    inlet
    {
        type patch;
        faces
        (
            (1 2 3 4)
            (1 5 6 2)
            (2 6 7 3)
            (3 7 8 4)
            (4 8 5 1)
        );
    }
    outlet
    {
        type patch;
        faces
        (
            (9 10 11 12)
            (9 10 14 13)
            (10 11 15 14)
            (11 12 16 15)
            (12 9 13 16)
        );
    }
);

mergePatchPairs
(
);

// ************************************************************************* //
