/*--------------------------------*- C++ -*----------------------------------*\
  =========                 |
  \\      /  F ield         | OpenFOAM: The Open Source CFD Toolbox
   \\    /   O peration     | Website:  https://openfoam.org
    \\  /    A nd           | Version:  8
     \\/     M anipulation  |
\*---------------------------------------------------------------------------*/
FoamFile
{
    version     2.0;
    format      ascii;
    class       dictionary;
    object      blockMeshDict;
}
// * * * * * * * * * * * * * * * * * * * * * * * * * * * * * * * * * * * * * //

// Note: this file is a Copy of $FOAM_TUTORIALS/resources/blockMesh/pitzDaily


scale 0.001;

vertices
(
    (0.7071 -0.7071 0)//0
    (0.7071 0.7071 0)//11
    (-0.7071 0.7071 0)//2
    (-0.7071 -0.7071 0)//3
    (0.7071 -0.7071 30)//4
    (0.7071 0.7071 30)//5
    (-0.7071 0.7071 30)//6
    (-0.7071 -0.7071 30)//7
    (3.5355 3.5355 0)//8
    (-3.5355 3.5355 0)//9
    (-3.5355 -3.5355 0)//10
    (3.5355 -3.5355 0)//11
    (3.5355 3.5355 30)//12
    (-3.5355 3.5355 30)//13
    (-3.5355 -3.5355 30)//14
    (3.5355 -3.5355 30)//15
);

blocks
(
    hex ( 0 1 2 3 4 5 6 7) (8 8 75) simpleGrading (1 1 1)
    hex (3 10 11 0 7 14 15 4) (8 8 75) simpleGrading (1 1 1)
    hex (0 11 8 1 4 15 12 5) (8 8 75) simpleGrading (1 1 1)
    hex (1 8 9 2 5 12 13 6) (8 8 75) simpleGrading (1 1 1)
    hex (2 9 10 3 6 13 14 7) (8 8 75) simpleGrading (1 1 1)
 );
 
edges 
(
 	arc 0 1 (1 0 0)
 	arc 1 2 ( 0 1 0)
 	arc 2 3 (-1 0 0)
 	arc 3 0 (0 -1 0)
 	arc 4 5 (1 0 30)
 	arc 5 6 ( 0 1 30)
 	arc 6 7 (-1 0 30)
 	arc 7 4 (0 -1 30)
 	arc 8 9 (0 5 0)
 	arc 9 10 (-5 0 0)
 	arc 10 11 (0 -5 0)
 	arc 11 8 (5 0 0)
 	arc 12 13 (0 5 30)
 	arc 13 14 (-5 0 30)
 	arc 14 15 (0 -5 30)
 	arc 15 12 (5 0 30)
 	
 	
);

defaultPatch 
{
    name solidWalls;
    type wall;
}

boundary 
(
    atmosphere
	{
	   type patch;
	   faces 
		(
		   (0 1 2 3)
		   (3 2 9 10)
		   (3 10 11 0)
		   (0 11 8 1)
		   (1 8 9 2)
		 );
	}
);



    
    
 
     

