/*--------------------------------*- C++ -*----------------------------------*\
  =========                 |
  \\      /  F ield         | OpenFOAM: The Open Source CFD Toolbox
   \\    /   O peration     | Website:  https://openfoam.org
    \\  /    A nd           | Version:  8
     \\/     M anipulation  |
\*---------------------------------------------------------------------------*/
FoamFile
{
    version     2.0;
    format      ascii;
    class       dictionary;
    location    "system";
    object      setFieldsDict;
}
// * * * * * * * * * * * * * * * * * * * * * * * * * * * * * * * * * * * * * //

defaultFieldValues
(
    volScalarFieldValue alpha.water 1
);

regions
(
    sphereToCell
    {
       centre (0 0 0.005);
       radius 0.0025;
       fieldValues 
       (
       	  volScalarFieldValue alpha.water 0
       	);
     }
     
     cylinderToCell
     {
      
      p1 (0 0 0.03);
      p2 (0 0 0.025);
      radius 0.005;
      fieldValues 
      (
         volScalarFieldValue alpha.water 0
      );
      
      }
      

);


// ************************************************************************* //
